/*--------------------------------*- C++ -*----------------------------------*\
  =========                 |
  \\      /  F ield         | OpenFOAM: The Open Source CFD Toolbox
   \\    /   O peration     | Website:  https://openfoam.org
    \\  /    A nd           | Version:  7
     \\/     M anipulation  |
\*---------------------------------------------------------------------------*/
FoamFile
{
    version     2.0;
    format      ascii;
    class       polyBoundaryMesh;
    location    "constant/polyMesh";
    object      boundary;
}
// * * * * * * * * * * * * * * * * * * * * * * * * * * * * * * * * * * * * * //

9
(
    entrada
    {
        type            patch;
        nFaces          42;
        startFace       21432;
    }
    salida
    {
        type            patch;
        nFaces          47;
        startFace       21474;
    }
    top
    {
        type            wall;
        inGroups        List<word> 1(wall);
        nFaces          240;
        startFace       21521;
    }
    bottom
    {
        type            wall;
        inGroups        List<word> 1(wall);
        nFaces          0;
        startFace       21761;
    }
    varilla
    {
        type            wall;
        inGroups        List<word> 1(wall);
        nFaces          12;
        startFace       21761;
    }
    ala
    {
        type            wall;
        inGroups        List<word> 1(wall);
        nFaces          75;
        startFace       21773;
    }
    front
    {
        type            empty;
        inGroups        List<word> 1(empty);
        nFaces          10863;
        startFace       21848;
    }
    back
    {
        type            empty;
        inGroups        List<word> 1(empty);
        nFaces          10863;
        startFace       32711;
    }
    procBoundary1to0
    {
        type            processor;
        inGroups        List<word> 1(processor);
        nFaces          172;
        startFace       43574;
        matchTolerance  0.0001;
        transform       unknown;
        myProcNo        1;
        neighbProcNo    0;
    }
)

// ************************************************************************* //
