/*--------------------------------*- C++ -*----------------------------------*\
  =========                 |
  \\      /  F ield         | OpenFOAM: The Open Source CFD Toolbox
   \\    /   O peration     | Website:  https://openfoam.org
    \\  /    A nd           | Version:  7
     \\/     M anipulation  |
\*---------------------------------------------------------------------------*/
FoamFile
{
    version     2.0;
    format      ascii;
    class       polyBoundaryMesh;
    location    "constant/polyMesh";
    object      boundary;
}
// * * * * * * * * * * * * * * * * * * * * * * * * * * * * * * * * * * * * * //

9
(
    entrada
    {
        type            patch;
        nFaces          43;
        startFace       21429;
    }
    salida
    {
        type            patch;
        nFaces          45;
        startFace       21472;
    }
    top
    {
        type            wall;
        inGroups        List<word> 1(wall);
        nFaces          0;
        startFace       21517;
    }
    bottom
    {
        type            wall;
        inGroups        List<word> 1(wall);
        nFaces          240;
        startFace       21517;
    }
    varilla
    {
        type            wall;
        inGroups        List<word> 1(wall);
        nFaces          13;
        startFace       21757;
    }
    ala
    {
        type            wall;
        inGroups        List<word> 1(wall);
        nFaces          77;
        startFace       21770;
    }
    front
    {
        type            empty;
        inGroups        List<word> 1(empty);
        nFaces          10862;
        startFace       21847;
    }
    back
    {
        type            empty;
        inGroups        List<word> 1(empty);
        nFaces          10862;
        startFace       32709;
    }
    procBoundary0to1
    {
        type            processor;
        inGroups        List<word> 1(processor);
        nFaces          172;
        startFace       43571;
        matchTolerance  0.0001;
        transform       unknown;
        myProcNo        0;
        neighbProcNo    1;
    }
)

// ************************************************************************* //
